Hello, git!
Hello, world!
Новая строка
Другая строка

Hello, git rebase!
Hello, git cherry-pick!

New line.